units(length='cm', time='s', quantity='mol', act_energy='cal/mol')

ideal_gas(name='gas',
          elements="H O C N Ar",
          species="""H2    H     O2    O     OH    
                     HO2   H2O2  H2O   AR    N2""",
          reactions='all',
          initial_state=state(temperature=300.0, pressure=OneAtm))

#-------------------------------------------------------------------------------
# Species data
#-------------------------------------------------------------------------------

species(name='H2',
        atoms='H:2',
        thermo=(NASA([200.00, 1000.00],
                     [ 3.29812400E+00,  8.24944200E-04, -8.14301500E-07,
                      -9.47543400E-11,  4.13487200E-13, -1.01252100E+03,
                      -3.29409400E+00]),
                NASA([1000.00, 5000.00],
                     [ 2.99142300E+00,  7.00064400E-04, -5.63382900E-08,
                      -9.23157800E-12,  1.58275200E-15, -8.35034000E+02,
                      -1.35511000E+00])),
        note='121286')

species(name='H',
        atoms='H:1',
        thermo=(NASA([200.00, 1000.00],
                     [ 2.50000000E+00,  0.00000000E+00,  0.00000000E+00,
                       0.00000000E+00,  0.00000000E+00,  2.54716300E+04,
                      -4.60117600E-01]),
                NASA([1000.00, 5000.00],
                     [ 2.50000000E+00,  0.00000000E+00,  0.00000000E+00,
                       0.00000000E+00,  0.00000000E+00,  2.54716300E+04,
                      -4.60117600E-01])),
        note='120186')

species(name='O2',
        atoms='O:2',
        thermo=(NASA([200.00, 1000.00],
                     [ 3.21293600E+00,  1.12748600E-03, -5.75615000E-07,
                       1.31387700E-09, -8.76855400E-13, -1.00524900E+03,
                       6.03473800E+00]),
                NASA([1000.00, 5000.00],
                     [ 3.69757800E+00,  6.13519700E-04, -1.25884200E-07,
                       1.77528100E-11, -1.13643500E-15, -1.23393000E+03,
                       3.18916600E+00])),
        note='121386')

species(name='O',
        atoms='O:1',
        thermo=(NASA([200.00, 1000.00],
                     [ 2.94642900E+00, -1.63816600E-03,  2.42103200E-06,
                      -1.60284300E-09,  3.89069600E-13,  2.91476400E+04,
                       2.96399500E+00]),
                NASA([1000.00, 5000.00],
                     [ 2.54206000E+00, -2.75506200E-05, -3.10280300E-09,
                       4.55106700E-12, -4.36805200E-16,  2.92308000E+04,
                       4.92030800E+00])),
        note='120186')

species(name='OH',
        atoms='H:1 O:1',
        thermo=(NASA([200.00, 1000.00],
                     [ 3.63726600E+00,  1.85091000E-04, -1.67616500E-06,
                       2.38720300E-09, -8.43144200E-13,  3.60678200E+03,
                       1.35886000E+00]),
                NASA([1000.00, 5000.00],
                     [ 2.88273000E+00,  1.01397400E-03, -2.27687700E-07,
                       2.17468400E-11, -5.12630500E-16,  3.88688800E+03,
                       5.59571200E+00])),
        note='121286')

species(name='HO2',
        atoms='H:1 O:2',
        thermo=(NASA([200.00, 1000.00],
                     [ 2.97996300E+00,  4.99669700E-03, -3.79099700E-06,
                       2.35419200E-09, -8.08902400E-13,  1.76227400E+02,
                       9.22272400E+00]),
                NASA([1000.00, 5000.00],
                     [ 4.07219100E+00,  2.13129600E-03, -5.30814500E-07,
                       6.11226900E-11, -2.84116500E-15, -1.57972700E+02,
                       3.47602900E+00])),
        note='20387')

species(name='H2O2',
        atoms='H:2 O:2',
        thermo=(NASA([200.00, 1000.00],
                     [ 3.38875400E+00,  6.56922600E-03, -1.48501300E-07,
                      -4.62580600E-09,  2.47151500E-12, -1.76631500E+04,
                       6.78536300E+00]),
                NASA([1000.00, 5000.00],
                     [ 4.57316700E+00,  4.33613600E-03, -1.47468900E-06,
                       2.34890400E-10, -1.43165400E-14, -1.80069600E+04,
                       5.01137000E-01])),
        note='120186')

species(name='H2O',
        atoms='H:2 O:1',
        thermo=(NASA([200.00, 1000.00],
                     [ 3.38684200E+00,  3.47498200E-03, -6.35469600E-06,
                       6.96858100E-09, -2.50658800E-12, -3.02081100E+04,
                       2.59023300E+00]),
                NASA([1000.00, 5000.00],
                     [ 2.67214600E+00,  3.05629300E-03, -8.73026000E-07,
                       1.20099600E-10, -6.39161800E-15, -2.98992100E+04,
                       6.86281700E+00])),
        note='20387')

species(name='AR',
        atoms='Ar:1',
        thermo=(NASA([200.00, 1000.00],
                     [ 2.50000000E+00,  0.00000000E+00,  0.00000000E+00,
                       0.00000000E+00,  0.00000000E+00, -7.45375000E+02,
                       4.36600100E+00]),
                NASA([1000.00, 5000.00],
                     [ 2.50000000E+00,  0.00000000E+00,  0.00000000E+00,
                       0.00000000E+00,  0.00000000E+00, -7.45375000E+02,
                       4.36600100E+00])),
        note='120186')

species(name='N2',
        atoms='N:2',
        thermo=(NASA([200.00, 1000.00],
                     [ 3.29867700E+00,  1.40824000E-03, -3.96322200E-06,
                       5.64151500E-09, -2.44485500E-12, -1.02090000E+03,
                       3.95037200E+00]),
                NASA([1000.00, 5000.00],
                     [ 2.92664000E+00,  1.48797700E-03, -5.68476100E-07,
                       1.00970400E-10, -6.75335100E-15, -9.22797700E+02,
                       5.98052800E+00])),
        note='121286')

#-------------------------------------------------------------------------------
# Reaction data
#-------------------------------------------------------------------------------

# Reaction 1
reaction('OH + H2 <=> H + H2O', [2.140000e+08, 1.52, 3449.0])

# Reaction 2
reaction('O + OH <=> O2 + H', [2.020000e+14, -0.4, 0.0])

# Reaction 3
reaction('O + H2 <=> OH + H', [5.060000e+04, 2.67, 6290.0])

# Reaction 4
falloff_reaction('H + O2 (+ M) <=> HO2 (+ M)',
                 kf=[4.520000e+13, 0.0, 0.0],
                 kf0=[1.050000e+19, -1.257, 0.0],
                 efficiencies='H2:0.0 H2O:0.0 N2:0.0')

# Reaction 5
falloff_reaction('H + O2 (+ N2) <=> HO2 (+ N2)',
                 kf=[4.520000e+13, 0.0, 0.0],
                 kf0=[2.030000e+20, -1.59, 0.0])

# Reaction 6
falloff_reaction('H + O2 (+ H2) <=> HO2 (+ H2)',
                 kf=[4.520000e+13, 0.0, 0.0],
                 kf0=[1.520000e+19, -1.133, 0.0])

# Reaction 7
falloff_reaction('H + O2 (+ H2O) <=> HO2 (+ H2O)',
                 kf=[4.520000e+13, 0.0, 0.0],
                 kf0=[2.100000e+23, -2.437, 0.0])

# Reaction 8
reaction('OH + HO2 <=> H2O + O2', [2.130000e+28, -4.827, 3500.0],
         options='duplicate')

# Reaction 9
reaction('OH + HO2 <=> H2O + O2', [9.100000e+14, 0.0, 10964.0],
         options='duplicate')

# Reaction 10
reaction('H + HO2 <=> OH + OH', [1.500000e+14, 0.0, 1000.0])

# Reaction 11
reaction('H + HO2 <=> H2 + O2', [8.450000e+11, 0.65, 1241.0])

# Reaction 12
reaction('H + HO2 <=> O + H2O', [3.010000e+13, 0.0, 1721.0])

# Reaction 13
reaction('O + HO2 <=> O2 + OH', [3.250000e+13, 0.0, 0.0])

# Reaction 14
reaction('OH + OH <=> O + H2O', [3.570000e+04, 2.4, -2112.0])

# Reaction 15
three_body_reaction('H + H + M <=> H2 + M', [1.000000e+18, -1.0, 0.0],
                    efficiencies='H2:0.0 H2O:0.0')

# Reaction 16
reaction('H + H + H2 <=> H2 + H2', [9.200000e+16, -0.6, 0.0])

# Reaction 17
reaction('H + H + H2O <=> H2 + H2O', [6.000000e+19, -1.25, 0.0])

# Reaction 18
three_body_reaction('H + OH + M <=> H2O + M', [2.210000e+22, -2.0, 0.0],
                    efficiencies='H2O:6.4')

# Reaction 19
three_body_reaction('H + O + M <=> OH + M', [4.710000e+18, -1.0, 0.0],
                    efficiencies='H2O:6.4')

# Reaction 20
three_body_reaction('O + O + M <=> O2 + M', [1.890000e+13, 0.0, -1788.0])

# Reaction 21
reaction('HO2 + HO2 <=> H2O2 + O2', [4.200000e+14, 0.0, 11982.0],
         options='duplicate')

# Reaction 22
reaction('HO2 + HO2 <=> H2O2 + O2', [1.300000e+11, 0.0, -1629.0],
         options='duplicate')

# Reaction 23
falloff_reaction('OH + OH (+ M) <=> H2O2 (+ M)',
                 kf=[1.240000e+14, -0.37, 0.0],
                 kf0=[3.040000e+30, -4.63, 2049.0],
                 falloff=Troe(A=0.47, T3=100.0, T1=2000.0, T2=1e+15))

# Reaction 24
reaction('H2O2 + H <=> HO2 + H2', [1.980000e+06, 2.0, 2435.0])

# Reaction 25
reaction('H2O2 + H <=> OH + H2O', [3.070000e+13, 0.0, 4217.0])

# Reaction 26
reaction('H2O2 + O <=> OH + HO2', [9.550000e+06, 2.0, 3970.0])

# Reaction 27
reaction('H2O2 + OH <=> H2O + HO2', [2.400000e+00, 4.042, -2162.0])
